data_Halite\-\NaCl
_symmetry_space_group_name_H-M    'P1'
_symmetry_Int_Tables_number       1
_symmetry_cell_setting            triclinic
loop_
_symmetry_equiv_pos_as_xyz
  x,y,z
_cell_length_a                    5.6300
_cell_length_b                    5.6300
_cell_length_c                    5.6300
_cell_angle_alpha                 90.0000
_cell_angle_beta                  90.0000
_cell_angle_gamma                 90.0000
loop_
_atom_site_label
_atom_site_type_symbol
_atom_site_fract_x
_atom_site_fract_y
_atom_site_fract_z
Cl1    Cl    0.50000   0.00000   0.00000
Cl2    Cl    0.50000   0.50000   0.50000
Cl3    Cl    0.00000   0.00000   0.50000
Cl4    Cl    0.00000   0.50000   0.00000
Na5    Na    0.00000   0.00000   0.00000
Na6    Na    0.00000   0.50000   0.50000
Na7    Na    0.50000   0.00000   0.50000
Na8    Na    0.50000   0.50000   0.00000
loop_